<?xml version="1.0" encoding="UTF-8"?>

<!-- generated on 2025-07-23 02:07:32 by Eclipse SUMO netedit Version 1.23.1
-->

<additional xmlns:xsi="http://www.w3.org/2001/XMLSchema-instance" xsi:noNamespaceSchemaLocation="http://sumo.dlr.de/xsd/additional_file.xsd">
    <!-- StoppingPlaces -->
    <busStop id="id_1" name="Sonnenallee/Pannierstr. (Berlin)" lane="E21_1" startPos="63.68" endPos="73.68" lines="M41"/>
    <busStop id="id_2" name="Sonnenallee/Pannierstraße" lane="155605343#3_1" startPos="10.00" endPos="20.00" friendlyPos="1" lines="M41"/>
    <busStop id="id_3" name="Sonnenallee/Pannierstr. (Berlin)" lane="-E7_1" startPos="126.51" endPos="136.51" lines="M29"/>
    <busStop id="id_4" name="Sonnenallee/Pannierstr. (Berlin)" lane="E7_1" startPos="30.40" endPos="40.40" lines="M29"/>
    <!-- Shapes -->
    <poly id="103414377" type="building" color="255,230,230" fill="1" layer="-1.00" shape="1457.861377,654.209122 1457.908518,652.316440 1457.948370,650.713228 1457.968771,650.089651 1444.775473,650.643681 1444.803085,651.288469 1444.864598,652.867221 1444.932886,654.757392 1445.459366,668.655182 1454.580768,668.278736 1457.533051,668.158885 1458.849757,668.107992 1458.417031,656.645062 1458.023715,656.675872 1457.861377,654.209122"/>
    <poly id="103414380" type="building" color="255,230,230" fill="1" layer="-1.00" shape="1374.676210,753.773320 1387.212813,753.645099 1387.674742,753.646172 1387.354766,737.696446 1387.157627,737.689609 1374.389171,737.778367 1374.542127,746.365390 1374.676210,753.773320"/>
    <poly id="103414381" type="building" color="255,230,230" fill="1" layer="-1.00" shape="1446.753660,700.050787 1459.966226,699.451829 1459.321397,681.984720 1459.271515,680.628263 1459.222118,679.294050 1459.003465,673.301141 1457.808313,672.069741 1457.533051,668.158885 1454.580768,668.278736 1445.459366,668.655182 1445.700113,674.413934 1445.921958,679.928296 1445.987599,681.384557 1446.045484,682.796476 1446.433240,692.190689 1446.753660,700.050787"/>
    <poly id="103414382" type="building" color="255,230,230" fill="1" layer="-1.00" shape="1374.049753,721.873573 1386.906042,721.449082 1392.852007,721.241779 1397.610767,721.104831 1397.406125,714.510737 1389.152181,714.790520 1389.181979,715.535407 1386.709605,715.544708 1386.623404,712.208365 1387.254593,712.183500 1386.735531,696.449528 1386.321608,696.469664 1373.594739,696.913592 1373.727610,704.265911 1373.927765,715.333317 1374.049753,721.873573"/>
    <poly id="103414384" type="building" color="255,230,230" fill="1" layer="-1.00" shape="1490.583382,592.385903 1497.022074,602.961585 1508.217539,596.119648 1507.921973,595.647596 1510.047240,594.355127 1512.805325,594.361934 1515.062642,598.519016 1514.492284,598.842981 1523.142929,612.742211 1523.725898,612.373463 1525.052407,614.647998 1522.153824,616.302219 1521.858260,615.830166 1509.482586,623.376501 1512.475318,628.240874 1537.032707,612.974430 1525.403917,594.254987 1515.823637,578.840382 1513.202567,578.574664 1505.312089,583.397444 1495.269442,589.524424 1490.583382,592.385903"/>
    <poly id="103414388" type="building" color="255,230,230" fill="1" layer="-1.00" shape="1374.993556,769.912271 1387.377601,769.642713 1387.547339,769.639018 1387.212813,753.645099 1374.676210,753.773320 1374.851946,762.782689 1374.993556,769.912271"/>
    <poly id="103414389" type="building" color="255,230,230" fill="1" layer="-1.00" shape="1484.566136,737.395362 1486.832769,739.170966 1490.964989,746.458574 1491.690519,746.086722 1492.998111,748.116857 1481.363883,755.068531 1483.128741,758.134695 1488.023742,766.451688 1496.077090,761.636454 1505.189898,756.186194 1501.772690,750.541011 1494.608019,738.745971 1489.113141,729.707607 1484.566136,737.395362"/>
    <poly id="103414392" type="building" color="255,230,230" fill="1" layer="-1.00" shape="1374.461517,672.136261 1373.042242,672.156027 1373.189891,679.875229 1383.750914,679.478441 1383.428249,670.583546 1394.369513,663.936036 1394.665328,664.419203 1397.769480,662.537883 1397.480455,662.054567 1409.004954,655.049450 1410.644799,657.361647 1411.510002,657.164783 1411.545538,659.734438 1410.791645,659.739715 1410.803319,664.646642 1407.375517,664.765741 1407.471751,671.373321 1404.531839,671.437296 1404.648459,677.732864 1407.113335,677.690354 1407.561451,677.680603 1419.448150,677.332937 1418.948485,664.046571 1418.116041,641.709746 1411.961436,642.010574 1411.194982,640.814365 1405.094309,644.530139 1392.256443,652.365020 1379.083494,660.407524 1373.090293,664.065362 1374.239394,665.364510 1374.461517,672.136261"/>
    <poly id="103414393" type="building" color="255,230,230" fill="1" layer="-1.00" shape="1444.775473,650.643681 1457.968771,650.089651 1457.954499,649.433445 1457.472433,649.443930 1457.356978,645.384943 1457.051442,645.391588 1456.222559,627.895102 1459.755734,625.748561 1465.869808,622.021439 1459.409491,611.390629 1453.436057,615.025680 1451.143248,616.421966 1445.471491,619.872427 1443.664518,623.617155 1444.168288,635.846329 1444.775473,650.643681"/>
    <poly id="103414396" type="building" color="255,230,230" fill="1" layer="-1.00" shape="1375.568471,798.819872 1376.266554,799.372173 1376.999068,799.945981 1386.448297,799.662411 1385.952846,794.688119 1386.989961,793.964519 1388.891012,793.923142 1388.874781,793.489527 1388.195835,793.504304 1387.981038,792.373985 1387.997302,791.872898 1387.965878,789.180751 1388.495456,789.169224 1388.415927,782.394369 1388.360802,777.989118 1387.830980,777.989522 1387.377601,769.642713 1374.993556,769.912271 1375.210450,780.812402 1375.568471,798.819872"/>
    <poly id="103414397" type="building" color="255,230,230" fill="1" layer="-1.00" shape="1423.222349,772.746134 1412.137526,773.098604 1412.337551,779.481378 1411.665634,779.507127 1411.808569,782.641943 1413.505697,782.593885 1413.659534,785.917630 1412.073152,787.621260 1405.879688,788.000838 1405.911178,788.823581 1406.288556,798.985811 1419.252307,798.514550 1422.340542,798.402844 1423.177864,797.550071 1424.081629,796.629087 1423.447340,779.028218 1423.222349,772.746134"/>
    <poly id="103414399" type="building" color="255,230,230" fill="1" layer="-1.00" shape="1467.251439,777.374298 1469.255530,777.697915 1478.267404,772.294308 1488.023742,766.451688 1483.128741,758.134695 1479.583527,760.348249 1478.694170,759.121321 1476.607061,760.290576 1474.645551,761.612884 1475.357915,762.509838 1470.563647,765.384823 1470.084787,764.605193 1465.883904,766.966545 1466.650085,768.151640 1463.498692,770.045074 1462.672857,768.928041 1462.090154,769.307919 1467.251439,777.374298"/>
    <poly id="103414400" type="building" color="255,230,230" fill="1" layer="-1.00" shape="1480.379169,698.540539 1472.377864,698.881452 1467.105010,699.118527 1467.172856,700.051753 1467.353781,703.998042 1480.704064,703.485163 1480.967551,718.100826 1481.306788,718.082322 1481.562471,724.842216 1486.007456,724.645412 1485.889177,698.276067 1480.379169,698.540539"/>
    <poly id="103414403" type="building" color="255,230,230" fill="1" layer="-1.00" shape="1447.760614,726.356298 1481.562471,724.842216 1481.306788,718.082322 1480.967551,718.100826 1463.271484,718.997534 1463.308544,719.764518 1460.865268,719.862168 1460.555739,712.814133 1459.966226,699.451829 1446.753660,700.050787 1447.085194,708.734070 1447.258831,713.281397 1447.760614,726.356298"/>
    <poly id="103414405" type="building" color="255,230,230" fill="1" layer="-1.00" shape="1393.951318,749.592721 1394.223861,756.185337 1422.481846,755.258850 1421.977104,741.738918 1421.829605,737.769647 1408.492753,738.271269 1408.750971,744.830815 1409.476967,744.792762 1409.718764,749.661300 1407.058238,749.763705 1407.040315,749.252235 1393.951318,749.592721"/>
    <poly id="103414406" type="building" color="255,230,230" fill="1" layer="-1.00" shape="1474.761790,602.032435 1493.605312,632.645854 1509.369115,623.156420 1503.614224,613.723105 1493.263428,620.045956 1487.231127,610.040067 1497.501187,603.752340 1497.022074,602.961585 1490.583382,592.385903 1482.833597,597.116642 1474.761790,602.032435"/>
    <poly id="103414408" type="building" color="255,230,230" fill="1" layer="-1.00" shape="1423.222349,772.746134 1422.705184,760.528377 1422.481846,755.258850 1394.223861,756.185337 1394.492530,762.599999 1407.585135,762.114779 1407.566486,761.569942 1410.160563,761.535748 1410.650869,773.142082 1412.137526,773.098604 1423.222349,772.746134"/>
    <poly id="103414411" type="building" color="255,230,230" fill="1" layer="-1.00" shape="1447.760614,726.356298 1448.199704,737.173701 1448.590058,747.936528 1450.862912,751.559128 1453.361254,755.555156 1464.496179,748.447362 1461.426862,743.184098 1461.063760,731.174410 1463.296554,731.081338 1463.338952,731.781441 1478.145768,731.092218 1479.905955,731.131833 1482.258750,731.559147 1483.054095,731.586361 1486.007456,724.645412 1481.562471,724.842216 1447.760614,726.356298"/>
    <poly id="103414413" type="building" color="255,230,230" fill="1" layer="-1.00" shape="1373.189891,679.875229 1373.433973,689.840065 1373.543172,694.544578 1373.594739,696.913592 1386.321608,696.469664 1385.971363,679.441240 1383.750914,679.478441 1373.189891,679.875229"/>
    <poly id="103414414" type="building" color="255,230,230" fill="1" layer="-1.00" shape="1407.763178,695.691468 1420.191066,695.243007 1419.549884,679.823260 1419.448150,677.332937 1407.561451,677.680603 1407.113335,677.690354 1407.763178,695.691468"/>
    <poly id="103414415" type="building" color="255,230,230" fill="0" layer="-1.00" shape="1470.987547,604.339990 1467.554988,606.428697 1459.409491,611.390629 1465.869808,622.021439 1466.222113,622.603529 1477.324611,615.863686"/>
    <poly id="103414416" type="building" color="255,230,230" fill="1" layer="-1.00" shape="1528.060443,658.969761 1530.432924,662.801651 1534.121718,668.752519 1539.670536,665.271450 1538.077580,662.613243 1537.574158,662.891242 1536.231649,660.817344 1545.006176,655.419028 1544.682975,654.925320 1546.801193,653.621892 1553.894833,664.962326 1565.013849,658.044286 1562.796808,654.487186 1559.988165,649.963733 1555.145523,642.179647 1528.060443,658.969761"/>
    <poly id="103414419" type="building" color="255,230,230" fill="1" layer="-1.00" shape="1374.389171,737.778367 1387.157627,737.689609 1386.906042,721.449082 1374.049753,721.873573 1374.223330,730.159707 1374.389171,737.778367"/>
    <poly id="103414420" type="building" color="255,230,230" fill="1" layer="-1.00" shape="1397.406125,714.510737 1397.610767,721.104831 1421.149237,720.236546 1420.742812,709.674363 1420.471302,702.503100 1420.191066,695.243007 1407.763178,695.691468 1408.087937,711.552070 1408.841338,711.524548 1408.960326,713.246705 1408.909831,714.672111 1406.102335,714.888988 1406.073992,714.210833 1397.406125,714.510737"/>
    <poly id="103414421" type="building" color="255,230,230" fill="1" layer="-1.00" shape="1506.656579,631.805733 1508.470198,634.926483 1507.005502,635.982045 1512.317643,644.423524 1512.208550,647.842003 1513.867907,647.616765 1519.061961,644.377060 1524.027591,641.253600 1518.253366,631.553633 1529.318578,624.658937 1535.375537,634.241498 1546.100534,627.632419 1545.128992,626.062317 1537.032707,612.974430 1512.475318,628.240874 1506.656579,631.805733"/>
    <poly id="103414423" type="building" color="255,230,230" fill="1" layer="-1.00" shape="1392.852007,721.241779 1393.069266,727.791089 1406.132628,727.206358 1406.119316,726.594640 1408.781549,726.570090 1408.838322,731.676330 1408.254178,731.677914 1408.492753,738.271269 1421.829605,737.769647 1421.413245,727.063023 1421.149237,720.236546 1397.610767,721.104831 1392.852007,721.241779"/>
    <poly id="103414424" type="building" color="255,230,230" fill="1" layer="-1.00" shape="1541.968309,644.724867 1539.512297,646.113530 1539.216979,645.652598 1527.564708,653.038511 1527.796986,653.411794 1525.446695,654.976204 1519.061961,644.377060 1513.867907,647.616765 1512.208550,647.842003 1502.122976,648.239302 1502.463529,654.530000 1509.605783,654.040904 1514.950399,662.414914 1514.988984,665.752292 1517.263272,665.691725 1528.060443,658.969761 1555.145523,642.179647 1552.125925,637.326960 1546.100534,627.632419 1535.375537,634.241498 1541.968309,644.724867"/>
    <poly id="1055826166" type="traffic_sign" color="black" fill="0" layer="0.00" shape="1433.136618,774.477724 1430.625716,774.587988"/>
    <poly id="1087260178" type="building" color="255,230,230" fill="1" layer="-1.00" shape="1406.288556,798.985811 1403.688678,799.064644 1396.065811,799.308432 1386.448297,799.662411 1385.952846,794.688119 1386.989961,793.964519 1388.891012,793.923142 1388.874781,793.489527 1388.195835,793.504304 1387.981038,792.373985 1387.997302,791.872898 1387.965878,789.180751 1388.495456,789.169224 1405.911178,788.823581 1406.288556,798.985811"/>
    <poly id="1087260179" type="landuse" color="194,194,130" fill="1" layer="-3.00" shape="1388.891012,793.923142 1386.989961,793.964519 1385.952846,794.688119 1386.448297,799.662411 1396.065811,799.308432 1403.688678,799.064644 1406.288556,798.985811 1405.911178,788.823581 1405.879688,788.000838 1405.620473,782.019939 1388.415927,782.394369 1388.495456,789.169224 1387.965878,789.180751 1387.997302,791.872898 1387.981038,792.373985 1388.195835,793.504304 1388.874781,793.489527 1388.891012,793.923142"/>
    <poly id="1129866473" type="amenity" color="237,199,199" fill="1" layer="-1.00" shape="1424.042949,577.865333 1424.215709,580.810334 1424.280162,581.899416 1426.281447,581.777984 1426.215543,580.622169 1426.044477,577.755023 1424.042949,577.865333"/>
    <poly id="1149572806" type="leisure" color="207,245,201" fill="1" layer="-2.00" shape="1619.576509,379.130832 1597.462889,399.072865 1590.913320,391.837674 1613.020159,371.895759 1619.576509,379.130832"/>
    <poly id="1149572806#1" type="sport" color="79,230,125" fill="1" layer="-2.00" shape="1619.576509,379.130832 1597.462889,399.072865 1590.913320,391.837674 1613.020159,371.895759 1619.576509,379.130832"/>
    <poly id="1149572807" type="leisure" color="207,245,201" fill="1" layer="-2.00" shape="1585.093757,416.333042 1582.045329,412.972030 1597.462889,399.072865 1619.576509,379.130832 1627.358747,372.118510 1630.400377,375.479698 1585.093757,416.333042"/>
    <poly id="1149572807#1" type="sport" color="79,230,125" fill="1" layer="-2.00" shape="1585.093757,416.333042 1582.045329,412.972030 1597.462889,399.072865 1619.576509,379.130832 1627.358747,372.118510 1630.400377,375.479698 1585.093757,416.333042"/>
    <poly id="1187324729" type="parking" color="184,184,179" fill="1" layer="-1.00" shape="1567.898355,511.612024 1562.662420,514.808071 1563.718837,516.532116 1568.954772,513.336070 1567.898355,511.612024"/>
    <poly id="1187324729#1" type="traffic_sign" color="black" fill="1" layer="0.00" shape="1567.898355,511.612024 1562.662420,514.808071 1563.718837,516.532116 1568.954772,513.336070 1567.898355,511.612024"/>
    <poly id="1187324731" type="parking" color="184,184,179" fill="1" layer="-1.00" shape="1716.963932,438.918557 1723.755530,434.776488 1719.677920,428.121766 1712.859639,432.286675 1716.963932,438.918557"/>
    <poly id="1187324732" type="parking" color="184,184,179" fill="1" layer="-1.00" shape="1703.332738,438.101579 1707.336398,444.791274 1711.305367,442.368411 1712.954700,441.364545 1708.883870,434.709684 1703.332738,438.101579"/>
    <poly id="1187324733" type="parking" color="184,184,179" fill="1" layer="-1.00" shape="1697.507842,450.790774 1694.416038,445.739277 1700.912712,441.781613 1704.004271,446.821992 1697.507842,450.790774"/>
    <poly id="1187324734" type="parking" color="184,184,179" fill="1" layer="-1.00" shape="1681.209827,460.747386 1677.105259,454.104411 1685.619852,448.912301 1689.737509,455.532744 1681.209827,460.747386"/>
    <poly id="1187324735" type="parking" color="184,184,179" fill="1" layer="-1.00" shape="1672.527926,466.054410 1668.476704,459.365774 1672.693732,456.792838 1676.784966,463.447227 1672.527926,466.054410"/>
    <poly id="1187324736" type="parking" color="184,184,179" fill="1" layer="-1.00" shape="1666.004630,470.034946 1661.906596,463.380714 1664.454173,461.823218 1668.525286,468.489165 1666.004630,470.034946"/>
    <poly id="1187324737" type="parking" color="184,184,179" fill="1" layer="-1.00" shape="1658.368465,474.696164 1654.243506,468.053650 1658.252689,465.607614 1662.330597,472.273408 1658.368465,474.696164"/>
    <poly id="1187324738" type="parking" color="184,184,179" fill="1" layer="-1.00" shape="1650.873212,479.276444 1646.734908,472.645353 1650.757422,470.187894 1654.882383,476.830406 1650.873212,479.276444"/>
    <poly id="1187324739" type="parking" color="184,184,179" fill="1" layer="-1.00" shape="1647.501117,481.341452 1639.684075,486.117901 1635.572196,479.452863 1643.355778,474.699388 1647.501117,481.341452"/>
    <poly id="1187324740" type="parking" color="184,184,179" fill="1" layer="-1.00" shape="1630.800981,491.540644 1626.702432,484.864196 1632.696038,481.206674 1636.747535,487.906403 1630.800981,491.540644"/>
    <poly id="1187324741" type="parking" color="184,184,179" fill="1" layer="-1.00" shape="1622.233166,496.778520 1618.134609,490.102078 1622.726747,487.287277 1626.838879,493.963427 1622.233166,496.778520"/>
    <poly id="1187324742" type="parking" color="184,184,179" fill="1" layer="-1.00" shape="1614.132015,492.536878 1618.224027,499.224585 1613.564729,502.074233 1609.499389,495.363695 1614.132015,492.536878"/>
    <poly id="1187324743" type="parking" color="184,184,179" fill="1" layer="-1.00" shape="1601.984084,499.955615 1606.777484,497.025153 1610.862955,503.724124 1606.786895,506.216162 1606.062769,506.654730 1601.984084,499.955615"/>
    <poly id="1187324744" type="parking" color="184,184,179" fill="1" layer="-1.00" shape="1591.418302,506.405316 1599.704517,501.340412 1603.749980,508.073629 1595.530705,513.092563 1591.418302,506.405316"/>
    <poly id="1187324745" type="landuse" color="194,194,130" fill="1" layer="-3.00" shape="1725.742946,429.002779 1723.640120,425.699060 1719.677920,428.121766 1723.755530,434.776488 1738.189506,425.939811 1740.415655,423.654923 1738.308424,420.774134 1737.116213,421.556656 1733.273535,424.165923 1725.742946,429.002779"/>
    <poly id="1187324749" type="man_made" color="255,230,230" fill="1" layer="-1.00" shape="1702.015162,441.245832 1703.564698,443.782631 1705.006195,442.905673 1703.456659,440.368873 1702.015162,441.245832"/>
    <poly id="1187324775" type="parking" color="184,184,179" fill="1" layer="-1.00" shape="1581.485489,521.665303 1577.339124,514.978806 1583.064688,511.493954 1587.184130,518.192168 1581.485489,521.665303"/>
    <poly id="1187324776" type="parking" color="184,184,179" fill="1" layer="-1.00" shape="1569.236799,529.130824 1577.992684,523.799747 1573.886572,517.090123 1565.097212,522.444189 1569.236799,529.130824"/>
    <poly id="1187324777" type="parking" color="184,184,179" fill="1" layer="-1.00" shape="1563.022134,532.926760 1558.922555,526.205878 1562.884840,523.794162 1566.957497,530.526759 1563.022134,532.926760"/>
    <poly id="1187324778" type="parking" color="184,184,179" fill="1" layer="-1.00" shape="1555.158209,537.726623 1552.070919,532.574966 1557.780931,529.001402 1560.950420,534.184658 1555.158209,537.726623"/>
    <poly id="1187324779" type="landuse" color="194,194,130" fill="1" layer="-3.00" shape="1546.121157,541.995624 1549.485609,540.520460 1552.944396,539.009868 1555.158209,537.726623 1553.455438,537.518821 1549.958868,531.663907 1548.807695,532.456712 1545.875060,534.734790 1543.056163,536.932507 1542.666901,537.775520 1542.627569,538.466273 1542.850116,539.329372 1544.131786,541.415722 1544.773390,541.869129 1545.449690,542.043598 1546.121157,541.995624"/>
    <poly id="1187324783" type="landuse" color="194,194,130" fill="1" layer="-3.00" shape="1587.184130,518.192168 1589.262164,516.911889 1590.710409,516.034749 1586.618130,509.335941 1583.064688,511.493954 1587.184130,518.192168"/>
    <poly id="1187324784" type="landuse" color="194,194,130" fill="1" layer="-3.00" shape="1577.339124,514.978806 1573.886572,517.090123 1577.992684,523.799747 1581.485489,521.665303 1577.339124,514.978806"/>
    <poly id="1187324797" type="landuse" color="194,194,130" fill="1" layer="-3.00" shape="1533.505699,549.146514 1537.253096,546.850720 1534.755695,542.899139 1531.024051,545.294739 1533.505699,549.146514"/>
    <poly id="1187324808" type="landuse" color="194,194,130" fill="1" layer="-3.00" shape="1397.320000,631.650000 1391.430000,633.570000 1387.980000,635.380000 1369.510000,644.430000 1364.340000,647.340000 1312.720000,678.800000 1313.280000,682.880000 1370.230000,652.090000 1397.320000,631.650000"/>
    <poly id="1187324809" type="parking" color="184,184,179" fill="1" layer="-1.00" shape="1452.746425,582.070219 1447.289237,585.393608 1448.486799,587.359362 1453.943985,584.035974 1452.746425,582.070219"/>
    <poly id="1187324831" type="amenity" color="237,199,199" fill="1" layer="-1.00" shape="1410.902311,634.856450 1403.286525,639.495385 1404.089592,640.813197 1411.705134,636.163141 1410.902311,634.856450"/>
    <poly id="1187433700" type="parking" color="184,184,179" fill="1" layer="-1.00" shape="1823.590000,355.800000 1827.350000,352.620000 1822.290000,346.610000 1818.490000,349.820000 1823.590000,355.800000"/>
    <poly id="1187433701" type="parking" color="184,184,179" fill="1" layer="-1.00" shape="1807.984782,369.012102 1813.201301,364.592739 1811.709415,362.833572 1813.644057,361.200425 1815.135942,362.959593 1820.933084,358.060305 1815.897347,352.016023 1813.962701,353.649169 1815.405612,355.342634 1811.596470,358.563115 1810.153559,356.869651 1802.862216,363.036479 1807.984782,369.012102"/>
    <poly id="1187433702" type="parking" color="184,184,179" fill="1" layer="-1.00" shape="1802.207795,373.899841 1805.996790,370.690917 1800.907449,364.681194 1797.111904,367.901391 1802.207795,373.899841"/>
    <poly id="1187433703" type="parking" color="184,184,179" fill="1" layer="-1.00" shape="1788.493007,375.187504 1793.508869,381.254444 1798.899008,376.697773 1793.723082,370.767826 1788.493007,375.187504"/>
    <poly id="1187433704" type="parking" color="184,184,179" fill="1" layer="-1.00" shape="1786.000544,387.437131 1787.138209,386.644677 1791.427513,383.013181 1786.471555,376.889308 1781.088217,381.445845 1786.000544,387.437131"/>
    <poly id="1187433720" type="landuse" color="194,194,130" fill="1" layer="-3.00" shape="1815.405612,355.342634 1813.962701,353.649169 1810.153559,356.869651 1811.596470,358.563115 1815.405612,355.342634"/>
    <poly id="1187433731" type="parking" color="184,184,179" fill="1" layer="-1.00" shape="1786.712798,397.102493 1791.302339,393.219686 1789.998848,391.690115 1785.409307,395.572924 1786.712798,397.102493"/>
    <poly id="1187689895" type="parking" color="184,184,179" fill="1" layer="-1.00" shape="1505.082648,526.285556 1503.373485,527.346432 1506.548131,532.451651 1508.250502,531.390924 1505.082648,526.285556"/>
    <poly id="1187689896" type="parking" color="184,184,179" fill="1" layer="-1.00" shape="1493.864946,529.300156 1499.096984,529.364443 1497.076728,526.114659 1491.844686,526.050374 1493.864946,529.300156"/>
    <poly id="1187689896#1" type="traffic_sign" color="black" fill="1" layer="0.00" shape="1493.864946,529.300156 1499.096984,529.364443 1497.076728,526.114659 1491.844686,526.050374 1493.864946,529.300156"/>
    <poly id="1192723287" type="parking" color="184,184,179" fill="1" layer="-1.00" shape="1733.273487,512.472711 1738.940285,521.618882 1740.743349,520.500416 1735.076554,511.354243 1733.273487,512.472711"/>
    <poly id="1193000806" type="parking" color="184,184,179" fill="1" layer="-1.00" shape="1368.987831,665.957303 1366.781197,666.005338 1366.897876,671.989339 1369.097959,671.952574 1369.067464,670.239618 1368.987831,665.957303"/>
    <poly id="1193000806#1" type="traffic_sign" color="black" fill="1" layer="0.00" shape="1368.987831,665.957303 1366.781197,666.005338 1366.897876,671.989339 1369.097959,671.952574 1369.067464,670.239618 1368.987831,665.957303"/>
    <poly id="1203098348" type="amenity" color="237,199,199" fill="1" layer="-1.00" shape="1540.179640,741.516366 1541.201832,743.230023 1549.302554,738.402723 1548.273574,736.689212 1540.179640,741.516366"/>
    <poly id="1214295226" type="amenity" color="237,199,199" fill="1" layer="-1.00" shape="1529.657237,593.672934 1528.665651,594.306492 1530.817767,597.686951 1531.809352,597.053393 1529.657237,593.672934"/>
    <poly id="1214295228" type="amenity" color="237,199,199" fill="1" layer="-1.00" shape="1591.356312,690.242121 1586.239321,681.707304 1584.603192,682.688675 1589.720185,691.223490 1591.356312,690.242121"/>
    <poly id="131333236" type="landuse" color="194,194,130" fill="1" layer="-3.00" shape="1447.240000,601.080000 1488.270000,576.120000 1482.920000,577.850000 1512.900000,557.990000 1476.770000,579.530000 1463.260000,587.620000 1460.680000,588.870000 1456.840000,590.920000 1448.970000,595.740000 1436.380000,602.250000 1447.240000,601.080000"/>
    <poly id="131333237" type="landuse" color="194,194,130" fill="1" layer="-3.00" shape="1421.830000,617.400000 1417.660000,619.940000 1415.060000,621.540000 1412.510000,623.090000 1368.460000,649.990000 1359.090000,659.100000 1342.400000,665.900000 1312.810000,683.960000 1310.430000,685.410000 1308.140000,686.780000 1305.910000,688.120000 1303.030000,685.070000 1307.390000,681.430000 1309.670000,680.050000 1312.050000,678.590000 1364.500000,646.550000 1368.770000,644.170000 1372.240000,642.440000 1374.670000,641.260000 1388.630000,634.440000 1391.340000,632.980000 1394.820000,630.940000 1410.750000,621.260000 1412.640000,620.110000 1415.260000,618.520000 1417.790000,616.980000 1420.450000,615.630000 1421.830000,617.400000"/>
    <poly id="143406217" type="building" color="255,230,230" fill="1" layer="-1.00" shape="1329.122090,797.349721 1338.617616,797.944116 1353.976307,798.900476 1356.470525,796.776475 1356.089272,774.897175 1356.026575,771.393408 1344.077060,771.653584 1343.167510,771.684516 1343.331370,782.641441 1343.910413,782.717852 1344.003443,785.742480 1338.656984,785.402674 1338.550065,784.859760 1329.930599,784.257413 1329.122090,797.349721"/>
    <poly id="151996463" type="building" color="255,230,230" fill="1" layer="-1.00" shape="1697.527347,426.332393 1688.382411,431.905363 1682.160741,435.701291 1674.970867,423.995560 1678.899582,421.595799 1679.229814,422.100490 1685.719961,418.154076 1684.368975,416.002431 1683.845873,416.314223 1674.814990,401.477145 1672.634705,401.179518 1672.008155,400.480965 1673.365232,395.088118 1672.442668,393.583691 1676.122108,391.278358 1685.144042,406.015487 1697.527347,426.332393"/>
    <poly id="151996464" type="building" color="255,230,230" fill="1" layer="-1.00" shape="1571.594616,503.208437 1561.894379,509.160921 1554.546951,513.660250 1544.020039,496.574797 1547.096471,494.660797 1549.949329,499.339068 1551.510689,500.228712 1557.093424,496.735807 1557.409360,497.207419 1560.405767,495.361931 1557.687967,490.958904 1557.164881,491.270710 1553.825880,485.790699 1558.997569,482.762951 1571.594616,503.208437"/>
    <poly id="151996465" type="building" color="255,230,230" fill="1" layer="-1.00" shape="1537.436315,524.024474 1534.111100,526.055162 1526.006141,531.016094 1517.766852,536.046725 1516.298739,536.946573 1504.634305,518.161184 1497.559758,506.775887 1516.403590,494.893906 1518.716120,493.463843 1520.674781,496.692720 1521.984839,498.834085 1513.961807,503.815510 1513.638836,503.332925 1511.575603,504.668552 1518.572530,515.922027 1518.096495,516.210559 1519.244097,518.066142 1520.600553,518.904593 1530.508791,512.836230 1537.436315,524.024474"/>
    <poly id="151996466" type="building" color="255,230,230" fill="1" layer="-1.00" shape="1625.245566,445.927762 1630.610894,442.428537 1625.866648,434.486461 1625.323907,434.832068 1624.043213,432.790186 1624.611831,430.507854 1626.808751,429.069227 1627.166149,429.573326 1633.692880,425.436881 1630.297674,419.869023 1626.685211,422.128428 1615.278423,429.275102 1625.245566,445.927762"/>
    <poly id="151996467" type="building" color="255,230,230" fill="1" layer="-1.00" shape="1642.647995,337.903702 1650.954197,330.301423 1660.073125,321.958239 1662.215874,322.089765 1670.953939,332.504487 1680.577723,343.979355 1663.646506,358.267175 1660.793563,354.835108 1667.668591,348.899646 1661.260723,341.305212 1661.740677,340.883081 1659.997525,338.817846 1657.541475,341.152270 1657.889671,341.545297 1650.912038,347.761184 1642.647995,337.903702"/>
    <poly id="151996468" type="building" color="255,230,230" fill="1" layer="-1.00" shape="1526.489234,444.790624 1531.631241,440.083258 1534.775186,437.210830 1539.757633,432.662724 1566.871043,462.139755 1563.501314,465.250744 1561.220090,462.807776 1561.666556,462.408617 1559.939157,460.443221 1549.478609,469.861735 1542.548359,462.301059 1541.399984,461.035239 1551.594499,451.878418 1545.275520,444.938716 1543.529909,446.512229 1535.074696,454.117942 1526.489234,444.790624"/>
    <poly id="151996469" type="building" color="255,230,230" fill="1" layer="-1.00" shape="1680.577723,343.979355 1686.651428,351.202735 1693.464652,359.322519 1683.430533,367.752268 1678.894887,371.611754 1676.354242,368.796033 1676.836040,366.893923 1680.306039,364.014516 1676.957257,359.958941 1677.417323,359.559498 1674.787707,356.400760 1672.713531,359.427913 1665.716050,365.354898 1661.359280,360.241857 1663.646506,358.267175 1680.577723,343.979355"/>
    <poly id="151996470" type="building" color="255,230,230" fill="1" layer="-1.00" shape="1554.546951,513.660250 1544.758003,519.592442 1537.436315,524.024474 1530.508791,512.836230 1524.846444,503.601170 1529.973972,500.418566 1533.339667,505.875726 1532.803488,506.210073 1534.904701,509.747424 1536.398931,510.048771 1538.579771,508.810745 1538.256077,508.294793 1543.927786,504.833320 1543.916735,503.387000 1540.882743,498.501249 1544.020039,496.574797 1554.546951,513.660250"/>