<?xml version="1.0" encoding="UTF-8"?>

<!-- generated on 2025-08-15 18:29:25 by Eclipse SUMO netedit Version 1.23.1
<neteditConfiguration xmlns:xsi="http://www.w3.org/2001/XMLSchema-instance" xsi:noNamespaceSchemaLocation="http://sumo.dlr.de/xsd/neteditConfiguration.xsd">

    <input>
        <sumocfg-file value="C:\Users\izdee\Desktop\BachelorArb\Berlin\gruppe2-main\Project_Dateien\Original\berlin_original.sumocfg"/>
        <additional-files value="C:\Users\izdee\Desktop\BachelorArb\Berlin\gruppe2-main\Project_Dateien\Original\berlin_original.add.xml"/>
        <route-files value="C:\Users\izdee\Desktop\BachelorArb\Berlin\gruppe2-main\Project_Dateien\Original\berlin_original.rou.xml"/>
        <sumo-net-file value="C:\Users\izdee\Desktop\BachelorArb\Berlin\gruppe2-main\Project_Dateien\Original\berlin_original.net.xml"/>
    </input>

    <output>
        <output-file value="C:\Users\izdee\Desktop\BachelorArb\Berlin\gruppe2-main\Project_Dateien\Original\berlin_original.net.xml"/>
    </output>

    <processing>
        <geometry.min-radius.fix.railways value="false"/>
        <geometry.avoid-overlap value="false"/>
        <geometry.max-grade.fix value="false"/>
        <offset.disable-normalization value="true"/>
        <lefthand value="0"/>
    </processing>

    <junctions>
        <no-turnarounds value="true"/>
        <junctions.corner-detail value="5"/>
        <junctions.limit-turn-speed value="5.50"/>
        <rectangular-lane-cut value="0"/>
    </junctions>

    <pedestrian>
        <walkingareas value="0"/>
    </pedestrian>

    <netedit>
        <ignore.routeelements value="false"/>
    </netedit>

</neteditConfiguration>
-->

<net version="1.20" junctionCornerDetail="5" limitTurnSpeed="5.50" avoidOverlap="0" xmlns:xsi="http://www.w3.org/2001/XMLSchema-instance" xsi:noNamespaceSchemaLocation="http://sumo.dlr.de/xsd/net_file.xsd">

    <location netOffset="-391892.34,-5815707.31" convBoundary="1276.71,307.67,1860.35,793.46" origBoundary="13.407794,52.481023,13.447580,52.503609" projParameter="+proj=utm +zone=33 +ellps=WGS84 +datum=WGS84 +units=m +no_defs"/>

    <type id="highway.residential" priority="3" numLanes="4" speed="13.89" disallow="tram rail_urban rail rail_electric rail_fast ship" oneway="0"/>
    <type id="highway.secondary" priority="11" numLanes="4" speed="27.78" disallow="tram rail_urban rail rail_electric rail_fast ship" oneway="0"/>

    <edge id=":9162751127_0" function="internal">
        <lane id=":9162751127_0_0" index="0" disallow="pedestrian" speed="6.33" length="9.69" shape="1707.09,460.15 1705.77,457.76 1704.06,456.51 1701.95,456.43 1699.43,457.49"/>
    </edge>
    <edge id=":9162751127_1" function="internal">
        <lane id=":9162751127_1_0" index="0" disallow="pedestrian" speed="7.70" length="10.19" shape="1711.36,449.66 1709.87,451.31 1709.16,453.42 1709.22,456.00 1710.06,459.05"/>
    </edge>
    <edge id=":9162751127_2" function="internal">
        <lane id=":9162751127_2_0" index="0" disallow="pedestrian" speed="8.33" length="14.12" shape="1711.36,449.66 1707.95,452.17 1705.55,453.80 1703.07,455.31 1699.43,457.49"/>
        <lane id=":9162751127_2_1" index="1" disallow="pedestrian" speed="8.33" length="14.12" shape="1709.44,447.10 1706.10,449.56 1703.75,451.15 1701.33,452.62 1697.77,454.76"/>
    </edge>
    <edge id=":J1_0" function="internal">
        <lane id=":J1_0_0" index="0" disallow="pedestrian tram rail_urban rail rail_electric rail_fast ship cable_car subway" speed="7.03" length="10.32" shape="1757.78,422.26 1755.78,420.51 1753.59,419.83 1751.21,420.22 1748.64,421.69"/>
    </edge>
    <edge id=":J1_1" function="internal">
        <lane id=":J1_1_0" index="0" disallow="pedestrian tram rail_urban rail rail_electric rail_fast ship cable_car subway" speed="8.33" length="22.61" shape="1757.78,422.26 1743.00,405.16"/>
    </edge>
    <edge id=":J1_2" function="internal">
        <lane id=":J1_2_0" index="0" disallow="pedestrian tram rail_urban rail rail_electric rail_fast ship cable_car subway" speed="8.33" length="2.84" shape="1757.78,422.26 1756.53,419.71"/>
    </edge>
    <edge id=":J1_16" function="internal">
        <lane id=":J1_16_0" index="0" disallow="pedestrian tram rail_urban rail rail_electric rail_fast ship cable_car subway" speed="8.33" length="18.83" shape="1756.53,419.71 1756.34,419.30 1755.63,414.78 1755.65,408.68 1756.40,401.02"/>
    </edge>
    <edge id=":J1_3" function="internal">
        <lane id=":J1_3_0" index="0" disallow="pedestrian tram rail_urban rail rail_electric rail_fast ship cable_car subway" speed="6.50" length="9.38" shape="1761.36,412.17 1759.48,414.02 1758.67,415.98 1758.92,418.05 1760.24,420.22"/>
    </edge>
    <edge id=":J1_4" function="internal">
        <lane id=":J1_4_0" index="0" disallow="pedestrian" speed="8.33" length="15.88" shape="1761.36,412.17 1748.64,421.69"/>
        <lane id=":J1_4_1" index="1" disallow="pedestrian" speed="8.33" length="15.88" shape="1759.45,409.61 1746.73,419.12"/>
    </edge>
    <edge id=":J1_6" function="internal">
        <lane id=":J1_6_0" index="0" disallow="pedestrian tram rail_urban rail rail_electric rail_fast ship cable_car subway" speed="8.33" length="5.95" shape="1759.45,409.61 1755.62,411.42 1753.91,411.36"/>
    </edge>
    <edge id=":J1_7" function="internal">
        <lane id=":J1_7_0" index="0" disallow="pedestrian tram rail_urban rail rail_electric rail_fast ship cable_car subway" speed="6.00" length="6.36" shape="1759.45,409.61 1757.52,410.37 1756.37,409.19 1756.05,406.57"/>
    </edge>
    <edge id=":J1_17" function="internal">
        <lane id=":J1_17_0" index="0" disallow="pedestrian tram rail_urban rail rail_electric rail_fast ship cable_car subway" speed="8.33" length="12.97" shape="1753.91,411.36 1751.60,411.28 1747.39,409.19 1743.00,405.16"/>
    </edge>
    <edge id=":J1_18" function="internal">
        <lane id=":J1_18_0" index="0" disallow="pedestrian tram rail_urban rail rail_electric rail_fast ship cable_car subway" speed="6.00" length="5.57" shape="1756.05,406.57 1755.99,406.07 1756.40,401.02"/>
    </edge>
    <edge id=":J1_8" function="internal">
        <lane id=":J1_8_0" index="0" disallow="pedestrian tram rail_urban rail rail_electric rail_fast ship cable_car subway" speed="6.21" length="12.53" shape="1745.38,403.02 1748.33,405.62 1750.62,406.08 1752.25,404.40 1753.23,400.60"/>
    </edge>
    <edge id=":J1_9" function="internal">
        <lane id=":J1_9_0" index="0" disallow="pedestrian tram rail_urban rail rail_electric rail_fast ship cable_car subway" speed="8.33" length="22.73" shape="1745.38,403.02 1760.24,420.22"/>
    </edge>
    <edge id=":J1_10" function="internal">
        <lane id=":J1_10_0" index="0" disallow="pedestrian tram rail_urban rail rail_electric rail_fast ship cable_car subway" speed="8.33" length="6.40" shape="1745.38,403.02 1748.90,407.87 1749.03,408.25"/>
    </edge>
    <edge id=":J1_19" function="internal">
        <lane id=":J1_19_0" index="0" disallow="pedestrian tram rail_urban rail rail_electric rail_fast ship cable_car subway" speed="8.33" length="12.22" shape="1749.03,408.25 1750.30,412.16 1749.57,415.91 1746.73,419.12"/>
    </edge>
    <edge id=":J1_11" function="internal">
        <lane id=":J1_11_0" index="0" disallow="pedestrian tram rail_urban rail rail_electric rail_fast ship cable_car subway" speed="6.32" length="9.73" shape="1742.35,413.25 1744.33,411.60 1745.09,409.70 1744.65,407.56 1743.00,405.16"/>
    </edge>
    <edge id=":J1_12" function="internal">
        <lane id=":J1_12_0" index="0" disallow="pedestrian tram rail_urban rail rail_electric rail_fast ship cable_car subway" speed="8.33" length="17.22" shape="1742.35,413.25 1746.77,410.25 1750.06,407.14 1752.21,403.92 1753.23,400.60"/>
        <lane id=":J1_12_1" index="1" disallow="pedestrian tram rail_urban rail rail_electric rail_fast ship cable_car subway" speed="8.33" length="19.78" shape="1744.27,415.83 1749.17,412.46 1752.82,408.87 1755.23,405.06 1756.40,401.02"/>
    </edge>
    <edge id=":J1_14" function="internal">
        <lane id=":J1_14_0" index="0" disallow="pedestrian tram rail_urban rail rail_electric rail_fast ship cable_car subway" speed="8.33" length="4.95" shape="1744.27,415.83 1748.37,414.27 1748.94,414.30"/>
    </edge>
    <edge id=":J1_15" function="internal">
        <lane id=":J1_15_0" index="0" disallow="pedestrian tram rail_urban rail rail_electric rail_fast ship cable_car subway" speed="4.04" length="2.60" shape="1744.27,415.83 1746.12,415.73 1746.79,416.07"/>
    </edge>
    <edge id=":J1_20" function="internal">
        <lane id=":J1_20_0" index="0" disallow="pedestrian tram rail_urban rail rail_electric rail_fast ship cable_car subway" speed="8.33" length="13.29" shape="1748.94,414.30 1752.40,414.49 1756.36,416.47 1760.24,420.22"/>
    </edge>
    <edge id=":J1_21" function="internal">
        <lane id=":J1_21_0" index="0" disallow="pedestrian tram rail_urban rail rail_electric rail_fast ship cable_car subway" speed="4.04" length="3.39" shape="1746.79,416.07 1747.14,416.25 1747.35,417.38 1746.73,419.12"/>
    </edge>
    <edge id=":J16_0" function="internal">
        <lane id=":J16_0_0" index="0" disallow="pedestrian tram rail_urban rail rail_electric rail_fast ship cable_car subway" speed="3.65" length="4.67" shape="1424.34,480.22 1425.09,478.98 1425.87,478.55 1426.69,478.91 1427.54,480.07"/>
    </edge>
    <edge id=":J3_0" function="internal">
        <lane id=":J3_0_0" index="0" disallow="pedestrian" speed="6.54" length="9.32" shape="1522.15,565.06 1520.49,563.04 1518.62,562.04 1516.55,562.07 1514.26,563.12"/>
    </edge>
    <edge id=":J3_1" function="internal">
        <lane id=":J3_1_0" index="0" disallow="pedestrian" speed="13.89" length="21.65" shape="1522.15,565.06 1510.85,546.59"/>
    </edge>
    <edge id=":J3_2" function="internal">
        <lane id=":J3_2_0" index="0" disallow="pedestrian tram rail_urban rail rail_electric rail_fast ship cable_car subway" speed="9.18" length="5.67" shape="1522.15,565.06 1519.81,560.15 1519.78,559.92"/>
    </edge>
    <edge id=":J3_14" function="internal">
        <lane id=":J3_14_0" index="0" disallow="pedestrian tram rail_urban rail rail_electric rail_fast ship cable_car subway" speed="9.18" length="12.20" shape="1519.78,559.92 1519.22,555.85 1520.39,552.16 1523.30,549.09"/>
    </edge>
    <edge id=":J3_3" function="internal">
        <lane id=":J3_3_0" index="0" disallow="pedestrian" speed="6.64" length="9.96" shape="1527.76,555.28 1525.35,556.95 1524.06,558.86 1523.90,561.00 1524.87,563.38"/>
    </edge>
    <edge id=":J3_4" function="internal">
        <lane id=":J3_4_0" index="0" disallow="pedestrian" speed="8.33" length="15.55" shape="1527.76,555.28 1523.65,557.43 1520.87,558.95 1518.15,560.60 1514.26,563.12"/>
        <lane id=":J3_4_1" index="1" disallow="pedestrian" speed="8.33" length="15.55" shape="1525.87,552.66 1521.80,554.79 1519.05,556.30 1516.36,557.94 1512.51,560.44"/>
    </edge>
    <edge id=":J3_6" function="internal">
        <lane id=":J3_6_0" index="0" disallow="pedestrian" speed="9.20" length="5.03" shape="1525.87,552.66 1521.71,553.96 1521.04,553.86"/>
    </edge>
    <edge id=":J3_15" function="internal">
        <lane id=":J3_15_0" index="0" disallow="pedestrian" speed="9.20" length="13.11" shape="1521.04,553.86 1517.82,553.38 1514.20,550.92 1510.85,546.59"/>
    </edge>
    <edge id=":J3_7" function="internal">
        <lane id=":J3_7_0" index="0" disallow="pedestrian tram rail_urban rail rail_electric rail_fast ship cable_car subway" speed="6.41" length="9.30" shape="1513.58,544.92 1515.23,546.92 1517.08,547.84 1519.15,547.71 1521.42,546.50"/>
    </edge>
    <edge id=":J3_8" function="internal">
        <lane id=":J3_8_0" index="0" disallow="pedestrian" speed="8.33" length="21.64" shape="1513.58,544.92 1524.87,563.38"/>
    </edge>
    <edge id=":J3_9" function="internal">
        <lane id=":J3_9_0" index="0" disallow="pedestrian" speed="8.33" length="5.71" shape="1513.58,544.92 1515.93,549.87 1515.97,550.10"/>
    </edge>
    <edge id=":J3_16" function="internal">
        <lane id=":J3_16_0" index="0" disallow="pedestrian" speed="8.33" length="11.78" shape="1515.97,550.10 1516.54,554.10 1515.40,557.63 1512.51,560.44"/>
    </edge>
    <edge id=":J3_10" function="internal">
        <lane id=":J3_10_0" index="0" disallow="pedestrian" speed="6.68" length="9.68" shape="1508.82,554.80 1510.89,553.14 1511.91,551.22 1511.90,549.03 1510.85,546.59"/>
    </edge>
    <edge id=":J3_11" function="internal">
        <lane id=":J3_11_0" index="0" disallow="pedestrian tram rail_urban rail rail_electric rail_fast ship cable_car subway" speed="8.33" length="15.17" shape="1508.82,554.80 1512.67,552.51 1515.27,550.88 1517.80,549.13 1521.42,546.50"/>
        <lane id=":J3_11_1" index="1" disallow="pedestrian tram rail_urban rail rail_electric rail_fast ship cable_car subway" speed="8.33" length="15.17" shape="1510.58,557.48 1514.46,555.17 1517.09,553.52 1519.63,551.75 1523.30,549.09"/>
    </edge>
    <edge id=":J3_13" function="internal">
        <lane id=":J3_13_0" index="0" disallow="pedestrian" speed="8.33" length="4.06" shape="1510.58,557.48 1514.40,556.11"/>
    </edge>
    <edge id=":J3_17" function="internal">
        <lane id=":J3_17_0" index="0" disallow="pedestrian" speed="8.33" length="13.39" shape="1514.40,556.11 1518.06,556.64 1521.55,559.07 1524.87,563.38"/>
    </edge>
    <edge id=":J5_0" function="internal">
        <lane id=":J5_0_0" index="0" disallow="pedestrian tram rail_urban rail rail_electric rail_fast ship cable_car subway" speed="6.17" length="11.71" shape="1430.58,621.85 1430.01,618.31 1428.58,616.54 1426.31,616.52 1423.18,618.26"/>
    </edge>
    <edge id=":J5_1" function="internal">
        <lane id=":J5_1_0" index="0" disallow="pedestrian tram rail_urban rail rail_electric rail_fast ship cable_car subway" speed="8.33" length="30.02" shape="1430.58,621.85 1429.40,591.85"/>
    </edge>
    <edge id=":J5_2" function="internal">
        <lane id=":J5_2_0" index="0" disallow="pedestrian tram rail_urban rail rail_electric rail_fast ship cable_car subway" speed="8.33" length="9.29" shape="1430.58,621.85 1431.23,614.40 1431.69,612.64"/>
    </edge>
    <edge id=":J5_3" function="internal">
        <lane id=":J5_3_0" index="0" disallow="pedestrian tram rail_urban rail rail_electric rail_fast ship cable_car subway" speed="3.65" length="1.44" shape="1430.58,621.85 1431.34,620.62"/>
    </edge>
    <edge id=":J5_18" function="internal">
        <lane id=":J5_18_0" index="0" disallow="pedestrian tram rail_urban rail rail_electric rail_fast ship cable_car subway" speed="8.33" length="19.17" shape="1431.69,612.64 1433.30,606.47 1436.33,599.67 1439.83,595.63"/>
    </edge>
    <edge id=":J5_19" function="internal">
        <lane id=":J5_19_0" index="0" disallow="pedestrian tram rail_urban rail rail_electric rail_fast ship cable_car subway" speed="3.65" length="3.23" shape="1431.34,620.62 1432.13,620.20 1432.94,620.57 1433.78,621.74"/>
    </edge>
    <edge id=":J5_4" function="internal">
        <lane id=":J5_4_0" index="0" disallow="pedestrian tram rail_urban rail rail_electric rail_fast ship cable_car subway" speed="8.33" length="21.80" shape="1445.11,604.57 1440.01,607.88 1436.42,611.85 1434.34,616.47 1433.78,621.74"/>
    </edge>
    <edge id=":J5_5" function="internal">
        <lane id=":J5_5_0" index="0" disallow="pedestrian" speed="8.33" length="26.06" shape="1445.11,604.57 1438.29,608.11 1433.73,610.74 1429.37,613.71 1423.18,618.26"/>
        <lane id=":J5_5_1" index="1" disallow="pedestrian" speed="8.33" length="26.06" shape="1443.48,601.81 1436.57,605.39 1431.96,608.06 1427.56,611.07 1421.29,615.67"/>
    </edge>
    <edge id=":J5_7" function="internal">
        <lane id=":J5_7_0" index="0" disallow="pedestrian tram rail_urban rail rail_electric rail_fast ship cable_car subway" speed="8.33" length="6.18" shape="1443.48,601.81 1437.60,603.74"/>
    </edge>
    <edge id=":J5_8" function="internal">
        <lane id=":J5_8_0" index="0" disallow="pedestrian" speed="3.97" length="2.42" shape="1443.48,601.81 1441.69,601.71 1441.16,601.37"/>
    </edge>
    <edge id=":J5_20" function="internal">
        <lane id=":J5_20_0" index="0" disallow="pedestrian tram rail_urban rail rail_electric rail_fast ship cable_car subway" speed="8.33" length="16.24" shape="1437.60,603.74 1433.30,602.72 1430.56,598.76 1429.40,591.85"/>
    </edge>
    <edge id=":J5_21" function="internal">
        <lane id=":J5_21_0" index="0" disallow="pedestrian" speed="3.97" length="3.39" shape="1441.16,601.37 1440.75,601.11 1440.68,600.00 1441.46,598.38"/>
    </edge>
    <edge id=":J5_9" function="internal">
        <lane id=":J5_9_0" index="0" disallow="pedestrian tram rail_urban rail rail_electric rail_fast ship cable_car subway" speed="6.18" length="11.04" shape="1432.59,591.71 1433.18,594.95 1434.58,596.68 1436.80,596.91 1439.83,595.63"/>
    </edge>
    <edge id=":J5_10" function="internal">
        <lane id=":J5_10_0" index="0" disallow="pedestrian tram rail_urban rail rail_electric rail_fast ship cable_car subway" speed="8.33" length="30.06" shape="1432.59,591.71 1433.78,621.74"/>
    </edge>
    <edge id=":J5_11" function="internal">
        <lane id=":J5_11_0" index="0" disallow="pedestrian tram rail_urban rail rail_electric rail_fast ship cable_car subway" speed="8.33" length="9.06" shape="1432.59,591.71 1431.98,599.10 1431.55,600.69"/>
    </edge>
    <edge id=":J5_12" function="internal">
        <lane id=":J5_12_0" index="0" disallow="pedestrian tram rail_urban rail rail_electric rail_fast ship cable_car subway" speed="3.65" length="1.44" shape="1432.59,591.71 1431.85,592.94"/>
    </edge>
    <edge id=":J5_22" function="internal">
        <lane id=":J5_22_0" index="0" disallow="pedestrian tram rail_urban rail rail_electric rail_fast ship cable_car subway" speed="8.33" length="19.73" shape="1431.55,600.69 1429.86,606.97 1426.76,613.84 1423.18,618.26"/>
    </edge>
    <edge id=":J5_23" function="internal">
        <lane id=":J5_23_0" index="0" disallow="pedestrian tram rail_urban rail rail_electric rail_fast ship cable_car subway" speed="3.65" length="3.23" shape="1431.85,592.94 1431.07,593.38 1430.25,593.02 1429.40,591.85"/>
    </edge>
    <edge id=":J5_13" function="internal">
        <lane id=":J5_13_0" index="0" disallow="pedestrian tram rail_urban rail rail_electric rail_fast ship cable_car subway" speed="8.33" length="22.67" shape="1416.60,609.25 1422.36,605.27 1426.42,601.05 1428.76,596.58 1429.40,591.85"/>
    </edge>
    <edge id=":J5_14" function="internal">
        <lane id=":J5_14_0" index="0" disallow="pedestrian" speed="8.33" length="26.93" shape="1416.60,609.25 1439.83,595.63"/>
    </edge>
    <edge id=":J5_15" function="internal">
        <lane id=":J5_15_0" index="0" disallow="pedestrian tram rail_urban rail rail_electric rail_fast ship cable_car subway" speed="8.33" length="11.01" shape="1416.60,609.25 1423.53,607.04 1427.07,608.24"/>
    </edge>
    <edge id=":J5_16" function="internal">
        <lane id=":J5_16_0" index="0" disallow="pedestrian" speed="8.33" length="26.62" shape="1418.50,611.85 1441.46,598.38"/>
    </edge>
    <edge id=":J5_17" function="internal">
        <lane id=":J5_17_0" index="0" disallow="pedestrian" speed="4.26" length="3.46" shape="1418.50,611.85 1420.63,611.76 1421.81,612.36"/>
    </edge>
    <edge id=":J5_24" function="internal">
        <lane id=":J5_24_0" index="0" disallow="pedestrian tram rail_urban rail rail_electric rail_fast ship cable_car subway" speed="8.33" length="16.00" shape="1427.07,608.24 1428.86,608.85 1432.36,613.98 1433.78,621.74"/>
    </edge>
    <edge id=":J5_25" function="internal">
        <lane id=":J5_25_0" index="0" disallow="pedestrian" speed="4.26" length="3.46" shape="1421.81,612.36 1422.03,613.67 1421.29,615.67"/>
    </edge>
    <edge id=":J8_0" function="internal">
        <lane id=":J8_0_0" index="0" disallow="pedestrian" speed="8.33" length="22.59" shape="1291.80,695.63 1290.40,673.09"/>
    </edge>
    <edge id=":J8_1" function="internal">
        <lane id=":J8_1_0" index="0" disallow="pedestrian" speed="8.33" length="5.22" shape="1291.80,695.63 1292.19,690.43"/>
    </edge>
    <edge id=":J8_2" function="internal">
        <lane id=":J8_2_0" index="0" disallow="pedestrian" speed="3.65" length="1.44" shape="1291.80,695.63 1292.58,694.42"/>
    </edge>
    <edge id=":J8_10" function="internal">
        <lane id=":J8_10_0" index="0" disallow="pedestrian" speed="8.33" length="16.94" shape="1292.19,690.43 1292.27,689.34 1293.93,684.07 1296.80,679.82 1300.87,676.59"/>
    </edge>
    <edge id=":J8_11" function="internal">
        <lane id=":J8_11_0" index="0" disallow="pedestrian" speed="3.65" length="3.23" shape="1292.58,694.42 1293.37,694.00 1294.18,694.38 1295.00,695.57"/>
    </edge>
    <edge id=":J8_3" function="internal">
        <lane id=":J8_3_0" index="0" disallow="pedestrian" speed="8.33" length="15.34" shape="1306.49,686.38 1301.43,688.72 1297.83,691.04 1295.68,693.32 1295.00,695.57"/>
    </edge>
    <edge id=":J8_4" function="internal">
        <lane id=":J8_4_0" index="0" disallow="pedestrian" speed="8.33" length="25.70" shape="1306.49,686.38 1300.10,687.75 1295.28,685.98 1292.05,681.10 1290.40,673.09"/>
    </edge>
    <edge id=":J8_5" function="internal">
        <lane id=":J8_5_0" index="0" disallow="pedestrian" speed="5.30" length="5.91" shape="1306.49,686.38 1302.85,686.14 1300.97,684.89"/>
    </edge>
    <edge id=":J8_6" function="internal">
        <lane id=":J8_6_0" index="0" disallow="pedestrian" speed="8.33" length="16.57" shape="1304.89,683.58 1300.50,685.86 1297.39,688.62 1295.56,691.86 1295.00,695.57"/>
    </edge>
    <edge id=":J8_12" function="internal">
        <lane id=":J8_12_0" index="0" disallow="pedestrian" speed="5.30" length="5.91" shape="1300.97,684.89 1300.84,682.63 1302.47,679.37"/>
    </edge>
    <edge id=":J8_7" function="internal">
        <lane id=":J8_7_0" index="0" disallow="pedestrian" speed="6.19" length="10.76" shape="1293.59,672.80 1294.30,675.90 1295.75,677.57 1297.94,677.80 1300.87,676.59"/>
    </edge>
    <edge id=":J8_8" function="internal">
        <lane id=":J8_8_0" index="0" disallow="pedestrian" speed="8.33" length="22.81" shape="1293.59,672.80 1295.00,695.57"/>
    </edge>
    <edge id=":J8_9" function="internal">
        <lane id=":J8_9_0" index="0" disallow="pedestrian" speed="3.65" length="1.44" shape="1293.59,672.80 1292.90,674.07"/>
    </edge>
    <edge id=":J8_13" function="internal">
        <lane id=":J8_13_0" index="0" disallow="pedestrian" speed="3.65" length="3.23" shape="1292.90,674.07 1292.14,674.54 1291.31,674.21 1290.40,673.09"/>
    </edge>
    <edge id=":cluster_1870038157_9146983667_0" function="internal">
        <lane id=":cluster_1870038157_9146983667_0_0" index="0" disallow="pedestrian tram rail_urban rail rail_electric rail_fast ship cable_car subway" speed="6.48" length="9.12" shape="1360.87,670.42 1359.66,668.22 1358.05,666.96 1356.02,666.63 1353.59,667.23"/>
    </edge>
    <edge id=":cluster_1870038157_9146983667_1" function="internal">
        <lane id=":cluster_1870038157_9146983667_1_0" index="0" disallow="pedestrian tram rail_urban rail rail_electric rail_fast ship cable_car subway" speed="3.65" length="4.67" shape="1360.87,670.42 1361.20,669.02 1361.80,668.36 1362.69,668.45 1363.86,669.30"/>
    </edge>
    <edge id=":cluster_1870038157_9146983667_2" function="internal">
        <lane id=":cluster_1870038157_9146983667_2_0" index="0" disallow="pedestrian tram rail_urban rail rail_electric rail_fast ship cable_car subway" speed="7.36" length="9.36" shape="1365.52,660.80 1364.00,662.38 1363.21,664.33 1363.17,666.63 1363.86,669.30"/>
    </edge>
    <edge id=":cluster_1870038157_9146983667_3" function="internal">
        <lane id=":cluster_1870038157_9146983667_3_0" index="0" disallow="pedestrian" speed="8.33" length="13.23" shape="1365.52,660.80 1362.24,663.15 1359.86,664.57 1357.33,665.72 1353.59,667.23"/>
        <lane id=":cluster_1870038157_9146983667_3_1" index="1" disallow="pedestrian" speed="8.33" length="13.23" shape="1363.62,658.23 1360.53,660.43 1358.29,661.77 1355.91,662.84 1352.38,664.27"/>
    </edge>
    <edge id=":cluster_2480006201_31357324_0" function="internal">
        <lane id=":cluster_2480006201_31357324_0_0" index="0" disallow="pedestrian tram rail_urban rail rail_electric rail_fast ship cable_car subway" speed="6.49" length="8.87" shape="1603.10,522.18 1601.66,520.23 1599.93,519.20 1597.92,519.09 1595.64,519.90"/>
    </edge>
    <edge id=":cluster_2480006201_31357324_1" function="internal">
        <lane id=":cluster_2480006201_31357324_1_0" index="0" disallow="pedestrian tram rail_urban rail rail_electric rail_fast ship cable_car subway" speed="6.57" length="8.89" shape="1607.87,513.02 1606.03,514.54 1605.09,516.32 1605.05,518.36 1605.91,520.66"/>
    </edge>
    <edge id=":cluster_2480006201_31357324_2" function="internal">
        <lane id=":cluster_2480006201_31357324_2_0" index="0" disallow="pedestrian" speed="8.33" length="13.93" shape="1607.87,513.02 1595.64,519.90"/>
        <lane id=":cluster_2480006201_31357324_2_1" index="1" disallow="pedestrian" speed="8.33" length="13.93" shape="1606.21,510.28 1594.16,517.06"/>
    </edge>

    <edge id="-1136034180#1" from="J16" to="J5" priority="3" type="highway.residential" shape="1426.53,493.17 1431.64,606.05">
        <lane id="-1136034180#1_0" index="0" allow="pedestrian" speed="8.33" length="111.75" width="2.00" shape="1430.14,479.95 1435.19,591.59"/>
        <lane id="-1136034180#1_1" index="1" disallow="pedestrian tram rail_urban rail rail_electric rail_fast ship cable_car subway" speed="8.33" length="111.75" shape="1427.54,480.07 1432.59,591.71"/>
        <param key="foot" value="use_sidepath"/>
        <param key="highway" value="residential"/>
        <param key="lit" value="yes"/>
        <param key="maxspeed" value="30"/>
        <param key="name" value="Reuterstraße"/>
        <param key="name:etymology:wikidata" value="Q76492"/>
        <param key="name:etymology:wikipedia" value="de:Fritz Reuter"/>
        <param key="parking:both" value="lane"/>
        <param key="parking:both:fee" value="yes"/>
        <param key="parking:both:fee:conditional" value="no @ (Mo-Fr 00:00-09:00,20:00-24:00; Sa-Su)"/>
        <param key="parking:both:orientation" value="parallel"/>
        <param key="parking:both:zone" value="100"/>
        <param key="postal_code" value="12043"/>
        <param key="sidewalk:both" value="separate"/>
        <param key="smoothness" value="excellent"/>
        <param key="source:width" value="ALKIS"/>
        <param key="surface" value="asphalt"/>
        <param key="width" value="12"/>
        <param key="wikidata" value="Q105762173"/>
    </edge>
    <edge id="-131333251#1" from="8090843424" to="cluster_2480006201_31357324" priority="3" type="highway.residential" shape="1681.24,644.62 1607.58,527.08 1599.62,512.41">
        <lane id="-131333251#1_0" index="0" allow="pedestrian" speed="8.33" length="149.12" width="2.00" shape="1679.69,650.06 1603.95,529.20 1600.82,523.42"/>
        <lane id="-131333251#1_1" index="1" disallow="pedestrian tram rail_urban rail rail_electric rail_fast ship cable_car subway" speed="8.33" length="149.12" shape="1681.89,648.67 1606.20,527.89 1603.10,522.18"/>
        <param key="foot" value="use_sidepath"/>
        <param key="highway" value="residential"/>
        <param key="lit" value="yes"/>
        <param key="maxspeed" value="30"/>
        <param key="name" value="Tellstraße"/>
        <param key="name:etymology:wikidata" value="Q30908"/>
        <param key="name:etymology:wikipedia" value="de:Wilhelm Tell"/>
        <param key="parking:both" value="lane"/>
        <param key="parking:both:fee" value="no"/>
        <param key="parking:left:orientation" value="parallel"/>
        <param key="parking:right:orientation" value="diagonal"/>
        <param key="postal_code" value="12045"/>
        <param key="sidewalk:both" value="separate"/>
        <param key="source:width" value="ALKIS"/>
        <param key="surface" value="sett"/>
        <param key="width" value="11"/>
    </edge>
    <edge id="-155605284#1" from="11025732909" to="cluster_1870038157_9146983667" priority="3" type="highway.residential" shape="1365.81,793.46 1364.53,680.78 1363.48,672.82 1360.13,663.91">
        <lane id="-155605284#1_0" index="0" allow="pedestrian" speed="8.33" length="122.87" width="2.00" shape="1361.61,793.51 1360.33,681.08 1359.38,673.85 1358.44,671.34"/>
        <lane id="-155605284#1_1" index="1" disallow="pedestrian tram rail_urban rail rail_electric rail_fast ship cable_car subway" speed="8.33" length="122.87" shape="1364.21,793.48 1362.93,680.89 1361.92,673.21 1360.87,670.42"/>
        <param key="foot" value="use_sidepath"/>
        <param key="highway" value="residential"/>
        <param key="lit" value="yes"/>
        <param key="maxspeed" value="30"/>
        <param key="name" value="Friedelstraße"/>
        <param key="name:etymology:wikidata" value="Q1358125"/>
        <param key="name:etymology:wikipedia" value="de:Ernst Friedel"/>
        <param key="parking:both" value="lane"/>
        <param key="parking:both:fee" value="yes"/>
        <param key="parking:both:fee:conditional" value="no @ (Mo-Fr 00:00-09:00,20:00-24:00; Sa-Su)"/>
        <param key="parking:both:orientation" value="parallel"/>
        <param key="parking:both:zone" value="105"/>
        <param key="postal_code" value="12047"/>
        <param key="sidewalk:both" value="separate"/>
        <param key="smoothness" value="good"/>
        <param key="source:width" value="ALKIS"/>
        <param key="surface" value="asphalt"/>
        <param key="width" value="11"/>
    </edge>
    <edge id="-68135997#1" from="J1" to="11071773719" priority="3" type="highway.residential" shape="1752.19,413.02 1860.35,543.47">